test/data/enwl/networks/network_22/Feeder_3/Loads.dss
New Load.LOAD1 Phases=1 Bus1=116.1 kV=0.23 kW=1 PF=0.95
New Load.LOAD2 Phases=1 Bus1=128.1 kV=0.23 kW=1 PF=0.95
New Load.LOAD3 Phases=1 Bus1=144.1 kV=0.23 kW=1 PF=0.95
New Load.LOAD4 Phases=1 Bus1=166.1 kV=0.23 kW=1 PF=0.95
New Load.LOAD5 Phases=1 Bus1=179.2 kV=0.23 kW=1 PF=0.95
New Load.LOAD6 Phases=1 Bus1=187.2 kV=0.23 kW=1 PF=0.95
New Load.LOAD7 Phases=1 Bus1=192.1 kV=0.23 kW=1 PF=0.95
New Load.LOAD8 Phases=1 Bus1=198.1 kV=0.23 kW=1 PF=0.95
New Load.LOAD9 Phases=1 Bus1=201.2 kV=0.23 kW=1 PF=0.95
New Load.LOAD10 Phases=1 Bus1=219.2 kV=0.23 kW=1 PF=0.95
New Load.LOAD11 Phases=1 Bus1=226.2 kV=0.23 kW=1 PF=0.95
New Load.LOAD12 Phases=1 Bus1=229.1 kV=0.23 kW=1 PF=0.95
New Load.LOAD13 Phases=1 Bus1=256.2 kV=0.23 kW=1 PF=0.95
New Load.LOAD14 Phases=1 Bus1=263.1 kV=0.23 kW=1 PF=0.95
New Load.LOAD15 Phases=1 Bus1=282.1 kV=0.23 kW=1 PF=0.95
New Load.LOAD16 Phases=1 Bus1=303.1 kV=0.23 kW=1 PF=0.95
New Load.LOAD17 Phases=1 Bus1=313.1 kV=0.23 kW=1 PF=0.95
New Load.LOAD18 Phases=1 Bus1=321.1 kV=0.23 kW=1 PF=0.95
New Load.LOAD19 Phases=1 Bus1=348.3 kV=0.23 kW=1 PF=0.95
New Load.LOAD20 Phases=1 Bus1=376.2 kV=0.23 kW=1 PF=0.95
New Load.LOAD21 Phases=1 Bus1=380.3 kV=0.23 kW=1 PF=0.95
New Load.LOAD22 Phases=1 Bus1=384.3 kV=0.23 kW=1 PF=0.95
New Load.LOAD23 Phases=1 Bus1=392.3 kV=0.23 kW=1 PF=0.95
New Load.LOAD24 Phases=1 Bus1=416.3 kV=0.23 kW=1 PF=0.95
New Load.LOAD25 Phases=1 Bus1=428.3 kV=0.23 kW=1 PF=0.95
New Load.LOAD26 Phases=1 Bus1=441.3 kV=0.23 kW=1 PF=0.95
New Load.LOAD27 Phases=1 Bus1=472.2 kV=0.23 kW=1 PF=0.95
New Load.LOAD28 Phases=1 Bus1=479.2 kV=0.23 kW=1 PF=0.95
New Load.LOAD29 Phases=1 Bus1=491.2 kV=0.23 kW=1 PF=0.95
New Load.LOAD30 Phases=1 Bus1=498.2 kV=0.23 kW=1 PF=0.95
New Load.LOAD31 Phases=1 Bus1=521.2 kV=0.23 kW=1 PF=0.95
New Load.LOAD32 Phases=1 Bus1=536.2 kV=0.23 kW=1 PF=0.95
New Load.LOAD33 Phases=1 Bus1=617.1 kV=0.23 kW=1 PF=0.95
New Load.LOAD34 Phases=1 Bus1=618.1 kV=0.23 kW=1 PF=0.95
New Load.LOAD35 Phases=1 Bus1=627.1 kV=0.23 kW=1 PF=0.95
New Load.LOAD36 Phases=1 Bus1=654.1 kV=0.23 kW=1 PF=0.95
New Load.LOAD37 Phases=1 Bus1=655.3 kV=0.23 kW=1 PF=0.95
New Load.LOAD38 Phases=1 Bus1=661.1 kV=0.23 kW=1 PF=0.95
New Load.LOAD39 Phases=1 Bus1=677.1 kV=0.23 kW=1 PF=0.95
New Load.LOAD40 Phases=1 Bus1=717.3 kV=0.23 kW=1 PF=0.95
New Load.LOAD41 Phases=1 Bus1=773.3 kV=0.23 kW=1 PF=0.95
New Load.LOAD42 Phases=1 Bus1=775.1 kV=0.23 kW=1 PF=0.95
New Load.LOAD43 Phases=1 Bus1=779.3 kV=0.23 kW=1 PF=0.95
New Load.LOAD44 Phases=1 Bus1=808.3 kV=0.23 kW=1 PF=0.95
New Load.LOAD45 Phases=1 Bus1=894.2 kV=0.23 kW=1 PF=0.95
New Load.LOAD46 Phases=1 Bus1=895.1 kV=0.23 kW=1 PF=0.95
New Load.LOAD47 Phases=1 Bus1=896.1 kV=0.23 kW=1 PF=0.95
New Load.LOAD48 Phases=1 Bus1=949.1 kV=0.23 kW=1 PF=0.95